13943286
  -OEChem-08292611593D

 85 90  0     1  0  0  0  0  0999 V2000
    4.5549    2.3561   -1.2924 O   0  0  0  0  0  0  0  0  0  0  0  0
   -2.8243    3.4261    0.6737 O   0  0  0  0  0  0  0  0  0  0  0  0
    5.1627   -2.0310    1.7886 O   0  0  0  0  0  0  0  0  0  0  0  0
   -3.9696   -0.6262    0.8935 O   0  0  0  0  0  0  0  0  0  0  0  0
   -4.1545   -1.9649   -1.5715 O   0  0  0  0  0  0  0  0  0  0  0  0
    1.5370   -0.3771    0.1298 C   0  0  1  0  0  0  0  0  0  0  0  0
    3.0091   -0.8547    0.0011 C   0  0  2  0  0  0  0  0  0  0  0  0
    2.3980   -0.6138    1.3576 C   0  0  0  0  0  0  0  0  0  0  0  0
    1.2113    1.1067   -0.1628 C   0  0  2  0  0  0  0  0  0  0  0  0
    4.0868    0.0995   -0.5296 C   0  0  1  0  0  0  0  0  0  0  0  0
   -0.2526    1.3104   -0.6339 C   0  0  1  0  0  0  0  0  0  0  0  0
    0.4372   -1.4110   -0.1465 C   0  0  0  0  0  0  0  0  0  0  0  0
   -1.2105    0.5174    0.3176 C   0  0  2  0  0  0  0  0  0  0  0  0
    3.2837   -2.3062   -0.3824 C   0  0  0  0  0  0  0  0  0  0  0  0
    2.2558    1.7424   -1.0855 C   0  0  0  0  0  0  0  0  0  0  0  0
    3.6597    1.5815   -0.4998 C   0  0  2  0  0  0  0  0  0  0  0  0
   -1.0251   -0.9822    0.0724 C   0  0  0  0  0  0  0  0  0  0  0  0
    5.5057   -0.2311    0.0996 C   0  0  0  0  0  0  0  0  0  0  0  0
   -2.6029    1.0846   -0.0862 C   0  0  2  0  0  0  0  0  0  0  0  0
   -0.7927    2.7460   -0.4626 C   0  0  0  0  0  0  0  0  0  0  0  0
    4.7799   -2.6156   -0.4900 C   0  0  0  0  0  0  0  0  0  0  0  0
   -2.3255    2.5882   -0.3576 C   0  0  2  0  0  0  0  0  0  0  0  0
    5.6121   -1.7556    0.4608 C   0  0  2  0  0  0  0  0  0  0  0  0
   -0.3953    0.9522   -2.1457 C   0  0  0  0  0  0  0  0  0  0  0  0
   -0.9718    0.7783    1.8364 C   0  0  0  0  0  0  0  0  0  0  0  0
   -3.7684    0.8019    0.8649 C   0  0  1  0  0  0  0  0  0  0  0  0
    5.8276    0.6343    1.3349 C   0  0  0  0  0  0  0  0  0  0  0  0
    6.6049    0.0605   -0.9568 C   0  0  0  0  0  0  0  0  0  0  0  0
   -5.0779    1.4096    0.3600 C   0  0  0  0  0  0  0  0  0  0  0  0
   -3.4260    1.2750    2.2745 C   0  0  0  0  0  0  0  0  0  0  0  0
   -5.6495    0.3006   -0.4910 C   0  0  0  0  0  0  0  0  0  0  0  0
   -5.2433   -0.9291    0.3007 C   0  0  1  0  0  0  0  0  0  0  0  0
   -5.1293   -2.1821   -0.5455 C   0  0  0  0  0  0  0  0  0  0  0  0
   -6.4628   -2.5221   -1.2192 C   0  0  0  0  0  0  0  0  0  0  0  0
   -4.6444   -3.3683    0.2928 C   0  0  0  0  0  0  0  0  0  0  0  0
    2.7268    0.2412    1.9370 H   0  0  0  0  0  0  0  0  0  0  0  0
    2.1707   -1.4652    1.9906 H   0  0  0  0  0  0  0  0  0  0  0  0
    1.3143    1.6516    0.7860 H   0  0  0  0  0  0  0  0  0  0  0  0
    4.1686   -0.1475   -1.6005 H   0  0  0  0  0  0  0  0  0  0  0  0
    0.6040   -2.3131    0.4559 H   0  0  0  0  0  0  0  0  0  0  0  0
    0.5448   -1.7453   -1.1856 H   0  0  0  0  0  0  0  0  0  0  0  0
    2.8108   -2.5316   -1.3454 H   0  0  0  0  0  0  0  0  0  0  0  0
    2.8407   -2.9876    0.3541 H   0  0  0  0  0  0  0  0  0  0  0  0
    2.2411    1.2928   -2.0859 H   0  0  0  0  0  0  0  0  0  0  0  0
    2.0350    2.8077   -1.2273 H   0  0  0  0  0  0  0  0  0  0  0  0
    3.6792    1.9840    0.5184 H   0  0  0  0  0  0  0  0  0  0  0  0
   -1.5966   -1.2987   -0.8091 H   0  0  0  0  0  0  0  0  0  0  0  0
   -1.4475   -1.5678    0.8987 H   0  0  0  0  0  0  0  0  0  0  0  0
   -2.8632    0.6228   -1.0472 H   0  0  0  0  0  0  0  0  0  0  0  0
   -0.5264    3.3997   -1.3009 H   0  0  0  0  0  0  0  0  0  0  0  0
   -0.3889    3.2244    0.4379 H   0  0  0  0  0  0  0  0  0  0  0  0
    4.9295   -3.6795   -0.2687 H   0  0  0  0  0  0  0  0  0  0  0  0
    5.1158   -2.4623   -1.5224 H   0  0  0  0  0  0  0  0  0  0  0  0
   -2.8082    2.8872   -1.2951 H   0  0  0  0  0  0  0  0  0  0  0  0
    6.6561   -2.0885    0.4131 H   0  0  0  0  0  0  0  0  0  0  0  0
   -1.4305    0.9515   -2.4959 H   0  0  0  0  0  0  0  0  0  0  0  0
    0.1246    1.6882   -2.7703 H   0  0  0  0  0  0  0  0  0  0  0  0
    0.0268   -0.0237   -2.3930 H   0  0  0  0  0  0  0  0  0  0  0  0
    0.0732    0.5644    2.0830 H   0  0  0  0  0  0  0  0  0  0  0  0
   -1.0546    1.8180    2.1501 H   0  0  0  0  0  0  0  0  0  0  0  0
   -1.4435    0.0403    2.4826 H   0  0  0  0  0  0  0  0  0  0  0  0
    5.0536    0.5538    2.1035 H   0  0  0  0  0  0  0  0  0  0  0  0
    5.9296    1.6932    1.0745 H   0  0  0  0  0  0  0  0  0  0  0  0
    6.7788    0.3296    1.7870 H   0  0  0  0  0  0  0  0  0  0  0  0
    6.6574    1.1217   -1.2149 H   0  0  0  0  0  0  0  0  0  0  0  0
    6.4362   -0.5005   -1.8821 H   0  0  0  0  0  0  0  0  0  0  0  0
    7.5954   -0.2198   -0.5790 H   0  0  0  0  0  0  0  0  0  0  0  0
    4.2811    3.2864   -1.2221 H   0  0  0  0  0  0  0  0  0  0  0  0
   -4.9793    2.3450   -0.1955 H   0  0  0  0  0  0  0  0  0  0  0  0
   -5.7796    1.5992    1.1817 H   0  0  0  0  0  0  0  0  0  0  0  0
   -2.5844    4.3410    0.4482 H   0  0  0  0  0  0  0  0  0  0  0  0
   -4.3850    1.5381    2.7525 H   0  0  0  0  0  0  0  0  0  0  0  0
   -3.1424    0.4705    2.9578 H   0  0  0  0  0  0  0  0  0  0  0  0
   -2.8836    2.1996    2.4394 H   0  0  0  0  0  0  0  0  0  0  0  0
    5.8405   -1.7058    2.4046 H   0  0  0  0  0  0  0  0  0  0  0  0
   -6.7329    0.3837   -0.6183 H   0  0  0  0  0  0  0  0  0  0  0  0
   -5.1900    0.3296   -1.4851 H   0  0  0  0  0  0  0  0  0  0  0  0
   -5.9490   -1.0857    1.1271 H   0  0  0  0  0  0  0  0  0  0  0  0
   -6.3797   -3.4483   -1.7998 H   0  0  0  0  0  0  0  0  0  0  0  0
   -7.2636   -2.6504   -0.4837 H   0  0  0  0  0  0  0  0  0  0  0  0
   -6.7615   -1.7476   -1.9338 H   0  0  0  0  0  0  0  0  0  0  0  0
   -3.6416   -3.1898    0.6967 H   0  0  0  0  0  0  0  0  0  0  0  0
   -4.5658   -4.2738   -0.3202 H   0  0  0  0  0  0  0  0  0  0  0  0
   -5.3243   -3.5766    1.1254 H   0  0  0  0  0  0  0  0  0  0  0  0
   -4.0984   -2.7725   -2.1104 H   0  0  0  0  0  0  0  0  0  0  0  0
  1 16  1  0  0  0  0
  1 68  1  0  0  0  0
  2 22  1  0  0  0  0
  2 71  1  0  0  0  0
  3 23  1  0  0  0  0
  3 75  1  0  0  0  0
  4 26  1  0  0  0  0
  4 32  1  0  0  0  0
  5 33  1  0  0  0  0
  5 85  1  0  0  0  0
  6  7  1  0  0  0  0
  6  8  1  0  0  0  0
  6  9  1  0  0  0  0
  6 12  1  0  0  0  0
  7  8  1  0  0  0  0
  7 10  1  0  0  0  0
  7 14  1  0  0  0  0
  8 36  1  0  0  0  0
  8 37  1  0  0  0  0
  9 11  1  0  0  0  0
  9 15  1  0  0  0  0
  9 38  1  0  0  0  0
 10 16  1  0  0  0  0
 10 18  1  0  0  0  0
 10 39  1  0  0  0  0
 11 13  1  0  0  0  0
 11 20  1  0  0  0  0
 11 24  1  0  0  0  0
 12 17  1  0  0  0  0
 12 40  1  0  0  0  0
 12 41  1  0  0  0  0
 13 17  1  0  0  0  0
 13 19  1  0  0  0  0
 13 25  1  0  0  0  0
 14 21  1  0  0  0  0
 14 42  1  0  0  0  0
 14 43  1  0  0  0  0
 15 16  1  0  0  0  0
 15 44  1  0  0  0  0
 15 45  1  0  0  0  0
 16 46  1  0  0  0  0
 17 47  1  0  0  0  0
 17 48  1  0  0  0  0
 18 23  1  0  0  0  0
 18 27  1  0  0  0  0
 18 28  1  0  0  0  0
 19 22  1  0  0  0  0
 19 26  1  0  0  0  0
 19 49  1  0  0  0  0
 20 22  1  0  0  0  0
 20 50  1  0  0  0  0
 20 51  1  0  0  0  0
 21 23  1  0  0  0  0
 21 52  1  0  0  0  0
 21 53  1  0  0  0  0
 22 54  1  0  0  0  0
 23 55  1  0  0  0  0
 24 56  1  0  0  0  0
 24 57  1  0  0  0  0
 24 58  1  0  0  0  0
 25 59  1  0  0  0  0
 25 60  1  0  0  0  0
 25 61  1  0  0  0  0
 26 29  1  0  0  0  0
 26 30  1  0  0  0  0
 27 62  1  0  0  0  0
 27 63  1  0  0  0  0
 27 64  1  0  0  0  0
 28 65  1  0  0  0  0
 28 66  1  0  0  0  0
 28 67  1  0  0  0  0
 29 31  1  0  0  0  0
 29 69  1  0  0  0  0
 29 70  1  0  0  0  0
 30 72  1  0  0  0  0
 30 73  1  0  0  0  0
 30 74  1  0  0  0  0
 31 32  1  0  0  0  0
 31 76  1  0  0  0  0
 31 77  1  0  0  0  0
 32 33  1  0  0  0  0
 32 78  1  0  0  0  0
 33 34  1  0  0  0  0
 33 35  1  0  0  0  0
 34 79  1  0  0  0  0
 34 80  1  0  0  0  0
 34 81  1  0  0  0  0
 35 82  1  0  0  0  0
 35 83  1  0  0  0  0
 35 84  1  0  0  0  0
M  END
> <PUBCHEM_COMPOUND_CID>
13943286

> <PUBCHEM_CONFORMER_RMSD>
0.8

> <PUBCHEM_CONFORMER_DIVERSEORDER>
1

> <PUBCHEM_MMFF94_PARTIAL_CHARGES>
24
1 -0.68
10 0.09
12 0.09
14 0.09
16 0.28
2 -0.68
22 0.28
23 0.28
26 0.28
3 -0.68
32 0.28
33 0.28
36 0.1
37 0.1
4 -0.56
5 -0.68
6 -0.19
68 0.4
7 -0.19
71 0.4
75 0.4
8 -0.2
85 0.4
9 0.09

> <PUBCHEM_EFFECTIVE_ROTOR_COUNT>
5.4

> <PUBCHEM_PHARMACOPHORE_FEATURES>
16
1 1 acceptor
1 1 donor
1 2 acceptor
1 2 donor
1 3 acceptor
1 3 donor
1 4 acceptor
1 5 acceptor
1 5 donor
3 18 27 28 hydrophobe
3 33 34 35 hydrophobe
5 11 13 19 20 22 rings
5 4 26 29 31 32 rings
6 6 9 11 12 13 17 rings
6 7 10 14 18 21 23 rings
7 6 7 8 9 10 15 16 rings

> <PUBCHEM_HEAVY_ATOM_COUNT>
35

> <PUBCHEM_ATOM_DEF_STEREO_COUNT>
12

> <PUBCHEM_ATOM_UDEF_STEREO_COUNT>
0

> <PUBCHEM_BOND_DEF_STEREO_COUNT>
0

> <PUBCHEM_BOND_UDEF_STEREO_COUNT>
0

> <PUBCHEM_ISOTOPIC_ATOM_COUNT>
0

> <PUBCHEM_COMPONENT_COUNT>
1

> <PUBCHEM_CACTVS_TAUTO_COUNT>
1

> <PUBCHEM_CONFORMER_ID>
00D4C1F600000001

> <PUBCHEM_MMFF94_ENERGY>
189.0193

> <PUBCHEM_FEATURE_SELFOVERLAP>
81.312

> <PUBCHEM_SHAPE_FINGERPRINT>
10366900 7 16878517730694933752
10595046 47 18411141350642787996
10622 236 18340473569710616383
11135609 201 17559654318156511448
11497681 19 18272371984012252406
11578080 2 17559663135603031170
11607047 403 17195421428330545651
11963148 33 18409162225703563470
12107698 1 18186800245365040088
12166972 35 18341897364427780368
12236239 1 18413108363753716888
12422481 6 17775568619546596262
12596602 18 17775005682957747632
12645989 146 18263085414636580622
13544653 18 18113628862864196773
13583140 156 17703214123120134481
13782708 43 18059577949654319950
13811026 1 18409443709406338831
14068700 675 18341328972297016569
14211702 104 18341057388461553959
14347332 77 18409164402913391645
14955137 171 17632861919273081488
15131766 46 15217012823498392421
15183329 4 18260828228121373679
15250474 111 18410573955340368411
15361156 5 17968959473920646308
17349148 13 17967820456772198749
17857418 61 18409449184766811782
1813 80 16660657219696911548
18608769 82 18412544315143203622
19377110 9 18342734148331166628
20028762 73 18411697669230676982
20511986 3 18339632357219959331
20775438 99 16617263095290799183
21033648 29 17914876670314664288
21223535 225 16298652899087170837
21236236 1 18342739615803773243
22393880 68 17968086500379587029
23522609 53 18120405144832534452
23559900 14 18411692201911051401
23569914 152 16595294418432001055
24771293 8 18334295401252881044
249057 3 18335701599341457213
32027 91 17624420770806729478
350125 39 18410576176049158244
3504750 166 18266734684299892970
3633792 109 18334851672468431365
392239 28 18410863135261626688
397830 11 17202750622602061730
4015057 19 17822299045201972865
439807 62 18337673148397338663
463206 1 18262808500735433091
474113 269 16879321503780669690
497634 4 18201723912088025497
504579 68 18335427880247028020
5104073 3 18342178860077084808
5326457 24 18411984671634573023
6126387 218 11241964894341517676
6431902 208 18336266829442601035
6691757 9 17703801285017020123
7226269 152 11891323258206630391
7495541 125 17917990590101869784
77296 10 18341896281283209286

> <PUBCHEM_SHAPE_MULTIPOLES>
690.94
15.72
3.33
1.5
2.98
0.54
-0.28
8.25
0.36
-2.45
0.46
-0.13
-0.24
-2.02

> <PUBCHEM_SHAPE_SELFOVERLAP>
1491.868

> <PUBCHEM_SHAPE_VOLUME>
379.4

> <PUBCHEM_COORDINATE_TYPE>
2
5
10

$$$$
