cycloastragenol
     RDKit          3D

 85 90  0  0  0  0  0  0  0  0999 V2000
   -1.0827   -2.6536    1.2465 C   0  0  0  0  0  0  0  0  0  0  0  0
   -1.0128   -1.1608    0.8071 C   0  0  2  0  0  0  0  0  0  0  0  0
   -0.7047   -1.1267   -0.6996 C   0  0  0  0  0  0  0  0  0  0  0  0
    0.6915   -1.7063   -0.9940 C   0  0  0  0  0  0  0  0  0  0  0  0
    1.8294   -1.1050   -0.1470 C   0  0  1  0  0  0  0  0  0  0  0  0
    3.2148   -1.5852   -0.5422 C   0  0  0  0  0  0  0  0  0  0  0  0
    2.8660   -0.1281   -0.7365 C   0  0  1  0  0  0  0  0  0  0  0  0
    2.6785    0.3706   -2.1630 C   0  0  0  0  0  0  0  0  0  0  0  0
    3.9872    0.8567   -2.7652 C   0  0  0  0  0  0  0  0  0  0  0  0
    4.6562    1.9050   -1.8826 C   0  0  1  0  0  0  0  0  0  0  0  0
    4.8914    1.4216   -0.4179 C   0  0  0  0  0  0  0  0  0  0  0  0
    3.4972    0.9466    0.1735 C   0  0  2  0  0  0  0  0  0  0  0  0
    3.5303    0.6286    1.6920 C   0  0  2  0  0  0  0  0  0  0  0  0
    2.6582   -0.5113    2.2168 C   0  0  0  0  0  0  0  0  0  0  0  0
    1.4977   -1.0147    1.3510 C   0  0  1  0  0  0  0  0  0  0  0  0
    0.1147   -0.3188    1.5468 C   0  0  2  0  0  0  0  0  0  0  0  0
   -0.4604   -0.2942    2.9718 C   0  0  0  0  0  0  0  0  0  0  0  0
   -1.9808   -0.0648    2.7723 C   0  0  1  0  0  0  0  0  0  0  0  0
   -2.3036   -0.4163    1.2848 C   0  0  2  0  0  0  0  0  0  0  0  0
   -3.7398   -0.9132    0.9555 C   0  0  1  0  0  0  0  0  0  0  0  0
   -4.7741    0.1368    1.3939 C   0  0  0  0  0  0  0  0  0  0  0  0
   -5.8751    0.0201    0.3655 C   0  0  0  0  0  0  0  0  0  0  0  0
   -5.1573   -0.4715   -0.8876 C   0  0  2  0  0  0  0  0  0  0  0  0
   -3.8586   -0.9444   -0.4890 O   0  0  0  0  0  0  0  0  0  0  0  0
   -5.0334    0.5678   -2.0341 C   0  0  0  0  0  0  0  0  0  0  0  0
   -4.2591    1.8225   -1.6190 C   0  0  0  0  0  0  0  0  0  0  0  0
   -4.3439   -0.0593   -3.2537 C   0  0  0  0  0  0  0  0  0  0  0  0
   -6.3429    0.9929   -2.4389 O   0  0  0  0  0  0  0  0  0  0  0  0
   -4.1552   -2.3042    1.4577 C   0  0  0  0  0  0  0  0  0  0  0  0
   -2.7099   -0.8325    3.7112 O   0  0  0  0  0  0  0  0  0  0  0  0
    0.2102    1.1673    1.0761 C   0  0  0  0  0  0  0  0  0  0  0  0
    3.1545    1.7926    2.4490 O   0  0  0  0  0  0  0  0  0  0  0  0
    5.4646    2.6187    0.3778 C   0  0  0  0  0  0  0  0  0  0  0  0
    5.9610    0.3043   -0.3725 C   0  0  0  0  0  0  0  0  0  0  0  0
    5.8734    2.3219   -2.5013 O   0  0  0  0  0  0  0  0  0  0  0  0
   -0.1265   -3.1775    1.2105 H   0  0  0  0  0  0  0  0  0  0  0  0
   -1.4648   -2.7798    2.2629 H   0  0  0  0  0  0  0  0  0  0  0  0
   -1.7265   -3.2205    0.5688 H   0  0  0  0  0  0  0  0  0  0  0  0
   -0.7692   -0.1061   -1.0922 H   0  0  0  0  0  0  0  0  0  0  0  0
   -1.4493   -1.7071   -1.2573 H   0  0  0  0  0  0  0  0  0  0  0  0
    0.6813   -2.7887   -0.8156 H   0  0  0  0  0  0  0  0  0  0  0  0
    0.8766   -1.6092   -2.0662 H   0  0  0  0  0  0  0  0  0  0  0  0
    3.3112   -2.2130   -1.4245 H   0  0  0  0  0  0  0  0  0  0  0  0
    3.9201   -1.8740    0.2277 H   0  0  0  0  0  0  0  0  0  0  0  0
    2.2948   -0.4075   -2.8279 H   0  0  0  0  0  0  0  0  0  0  0  0
    1.9406    1.1820   -2.1631 H   0  0  0  0  0  0  0  0  0  0  0  0
    3.8031    1.2795   -3.7608 H   0  0  0  0  0  0  0  0  0  0  0  0
    4.6637    0.0100   -2.9331 H   0  0  0  0  0  0  0  0  0  0  0  0
    4.0110    2.7929   -1.8593 H   0  0  0  0  0  0  0  0  0  0  0  0
    2.8369    1.8213    0.0726 H   0  0  0  0  0  0  0  0  0  0  0  0
    4.5517    0.4075    2.0150 H   0  0  0  0  0  0  0  0  0  0  0  0
    3.3339   -1.3691    2.3518 H   0  0  0  0  0  0  0  0  0  0  0  0
    2.2975   -0.2898    3.2289 H   0  0  0  0  0  0  0  0  0  0  0  0
    1.3898   -2.0477    1.6970 H   0  0  0  0  0  0  0  0  0  0  0  0
   -0.0289    0.5022    3.5888 H   0  0  0  0  0  0  0  0  0  0  0  0
   -0.2684   -1.2346    3.5022 H   0  0  0  0  0  0  0  0  0  0  0  0
   -2.2304    0.9877    2.9518 H   0  0  0  0  0  0  0  0  0  0  0  0
   -2.2628    0.5343    0.7351 H   0  0  0  0  0  0  0  0  0  0  0  0
   -4.3565    1.1492    1.3389 H   0  0  0  0  0  0  0  0  0  0  0  0
   -5.1337   -0.0099    2.4173 H   0  0  0  0  0  0  0  0  0  0  0  0
   -6.6066   -0.7307    0.6877 H   0  0  0  0  0  0  0  0  0  0  0  0
   -6.4303    0.9526    0.2297 H   0  0  0  0  0  0  0  0  0  0  0  0
   -5.7148   -1.3350   -1.2739 H   0  0  0  0  0  0  0  0  0  0  0  0
   -3.2397    1.5871   -1.2986 H   0  0  0  0  0  0  0  0  0  0  0  0
   -4.1984    2.5317   -2.4531 H   0  0  0  0  0  0  0  0  0  0  0  0
   -4.7674    2.3573   -0.8102 H   0  0  0  0  0  0  0  0  0  0  0  0
   -3.3103   -0.3475   -3.0365 H   0  0  0  0  0  0  0  0  0  0  0  0
   -4.8867   -0.9486   -3.5937 H   0  0  0  0  0  0  0  0  0  0  0  0
   -4.3377    0.6386   -4.0989 H   0  0  0  0  0  0  0  0  0  0  0  0
   -6.7978    0.2256   -2.8272 H   0  0  0  0  0  0  0  0  0  0  0  0
   -5.2395   -2.4470    1.3817 H   0  0  0  0  0  0  0  0  0  0  0  0
   -3.8915   -2.4855    2.5001 H   0  0  0  0  0  0  0  0  0  0  0  0
   -3.7413   -3.1014    0.8365 H   0  0  0  0  0  0  0  0  0  0  0  0
   -2.3930   -0.5860    4.5978 H   0  0  0  0  0  0  0  0  0  0  0  0
    0.5249    1.2635    0.0353 H   0  0  0  0  0  0  0  0  0  0  0  0
    0.9162    1.7231    1.6936 H   0  0  0  0  0  0  0  0  0  0  0  0
   -0.7242    1.7260    1.1701 H   0  0  0  0  0  0  0  0  0  0  0  0
    3.7690    2.5131    2.2393 H   0  0  0  0  0  0  0  0  0  0  0  0
    4.7411    3.4395    0.4315 H   0  0  0  0  0  0  0  0  0  0  0  0
    6.3732    3.0147   -0.0903 H   0  0  0  0  0  0  0  0  0  0  0  0
    5.7421    2.3354    1.3981 H   0  0  0  0  0  0  0  0  0  0  0  0
    5.6973   -0.5536   -0.9954 H   0  0  0  0  0  0  0  0  0  0  0  0
    6.1231   -0.0667    0.6437 H   0  0  0  0  0  0  0  0  0  0  0  0
    6.9315    0.6699   -0.7275 H   0  0  0  0  0  0  0  0  0  0  0  0
    6.3827    1.5288   -2.7394 H   0  0  0  0  0  0  0  0  0  0  0  0
  2  1  1  1
  2  3  1  0
  3  4  1  0
  5  4  1  6
  5  6  1  0
  7  6  1  6
  7  8  1  0
  8  9  1  0
  9 10  1  0
 10 11  1  0
 11 12  1  0
 12 13  1  0
 13 14  1  0
 14 15  1  0
 15 16  1  0
 16 17  1  0
 17 18  1  0
 18 19  1  0
 19 20  1  0
 20 21  1  0
 21 22  1  0
 22 23  1  0
 23 24  1  0
 23 25  1  0
 25 26  1  0
 25 27  1  0
 25 28  1  0
 20 29  1  1
 18 30  1  0
 16 31  1  6
 13 32  1  0
 11 33  1  0
 11 34  1  0
 10 35  1  0
 16  2  1  0
 19  2  1  0
  7  5  1  0
 15  5  1  0
 12  7  1  0
 24 20  1  0
  1 36  1  0
  1 37  1  0
  1 38  1  0
  3 39  1  0
  3 40  1  0
  4 41  1  0
  4 42  1  0
  6 43  1  0
  6 44  1  0
  8 45  1  0
  8 46  1  0
  9 47  1  0
  9 48  1  0
 10 49  1  1
 12 50  1  1
 13 51  1  1
 14 52  1  0
 14 53  1  0
 15 54  1  1
 17 55  1  0
 17 56  1  0
 18 57  1  6
 19 58  1  6
 21 59  1  0
 21 60  1  0
 22 61  1  0
 22 62  1  0
 23 63  1  6
 26 64  1  0
 26 65  1  0
 26 66  1  0
 27 67  1  0
 27 68  1  0
 27 69  1  0
 28 70  1  0
 29 71  1  0
 29 72  1  0
 29 73  1  0
 30 74  1  0
 31 75  1  0
 31 76  1  0
 31 77  1  0
 32 78  1  0
 33 79  1  0
 33 80  1  0
 33 81  1  0
 34 82  1  0
 34 83  1  0
 34 84  1  0
 35 85  1  0
M  END
$$$$
