gallic_acid
     RDKit          3D

 18 18  0  0  0  0  0  0  0  0999 V2000
    0.2833    1.2010    0.2920 C   0  0  0  0  0  0  0  0  0  0  0  0
    0.9956   -0.0075    0.2541 C   0  0  0  0  0  0  0  0  0  0  0  0
    0.3548   -1.1975   -0.1276 C   0  0  0  0  0  0  0  0  0  0  0  0
   -0.9965   -1.1737   -0.4700 C   0  0  0  0  0  0  0  0  0  0  0  0
   -1.7025    0.0256   -0.4322 C   0  0  0  0  0  0  0  0  0  0  0  0
   -1.0630    1.2054   -0.0527 C   0  0  0  0  0  0  0  0  0  0  0  0
   -1.8061    2.3547   -0.0335 O   0  0  0  0  0  0  0  0  0  0  0  0
   -3.0289    0.0673   -0.7650 O   0  0  0  0  0  0  0  0  0  0  0  0
   -1.6376   -2.3204   -0.8439 O   0  0  0  0  0  0  0  0  0  0  0  0
    2.4296    0.0222    0.6275 C   0  0  0  0  0  0  0  0  0  0  0  0
    3.0525    1.0107    0.9678 O   0  0  0  0  0  0  0  0  0  0  0  0
    3.0141   -1.1859    0.5569 O   0  0  0  0  0  0  0  0  0  0  0  0
    0.7878    2.1165    0.5886 H   0  0  0  0  0  0  0  0  0  0  0  0
    0.9105   -2.1301   -0.1553 H   0  0  0  0  0  0  0  0  0  0  0  0
   -1.2336    3.0898    0.2477 H   0  0  0  0  0  0  0  0  0  0  0  0
   -3.2861    1.0032   -0.6601 H   0  0  0  0  0  0  0  0  0  0  0  0
   -1.0158   -3.0639   -0.8201 H   0  0  0  0  0  0  0  0  0  0  0  0
    3.9421   -1.0174    0.8258 H   0  0  0  0  0  0  0  0  0  0  0  0
  1  2  1  0
  2  3  2  0
  3  4  1  0
  4  5  2  0
  5  6  1  0
  6  7  1  0
  5  8  1  0
  4  9  1  0
  2 10  1  0
 10 11  2  0
 10 12  1  0
  6  1  2  0
  1 13  1  0
  3 14  1  0
  7 15  1  0
  8 16  1  0
  9 17  1  0
 12 18  1  0
M  END
$$$$
