spermidine
     RDKit          3D

 29 28  0  0  0  0  0  0  0  0999 V2000
    2.7821   -0.0567    0.7685 C   0  0  0  0  0  0  0  0  0  0  0  0
    2.0889   -1.4254    0.7816 C   0  0  0  0  0  0  0  0  0  0  0  0
    0.7643   -1.4977    0.0149 C   0  0  0  0  0  0  0  0  0  0  0  0
   -0.1965   -0.5261    0.5332 N   0  0  0  0  0  0  0  0  0  0  0  0
   -1.4598   -0.5816   -0.2041 C   0  0  0  0  0  0  0  0  0  0  0  0
   -2.4510    0.4243    0.3858 C   0  0  0  0  0  0  0  0  0  0  0  0
   -3.7649    0.4136   -0.3943 C   0  0  0  0  0  0  0  0  0  0  0  0
   -4.7183    1.3472    0.1955 N   0  0  0  0  0  0  0  0  0  0  0  0
    3.1273    0.4318   -0.6382 C   0  0  0  0  0  0  0  0  0  0  0  0
    3.8787    1.6836   -0.5874 N   0  0  0  0  0  0  0  0  0  0  0  0
    3.7025   -0.1412    1.3609 H   0  0  0  0  0  0  0  0  0  0  0  0
    2.1548    0.6849    1.2784 H   0  0  0  0  0  0  0  0  0  0  0  0
    2.7730   -2.1749    0.3644 H   0  0  0  0  0  0  0  0  0  0  0  0
    1.9162   -1.7151    1.8263 H   0  0  0  0  0  0  0  0  0  0  0  0
    0.3612   -2.5128    0.1159 H   0  0  0  0  0  0  0  0  0  0  0  0
    0.9452   -1.3255   -1.0520 H   0  0  0  0  0  0  0  0  0  0  0  0
   -0.3698   -0.7083    1.5222 H   0  0  0  0  0  0  0  0  0  0  0  0
   -1.8872   -1.5901   -0.1498 H   0  0  0  0  0  0  0  0  0  0  0  0
   -1.2839   -0.3427   -1.2597 H   0  0  0  0  0  0  0  0  0  0  0  0
   -2.0151    1.4318    0.3619 H   0  0  0  0  0  0  0  0  0  0  0  0
   -2.6432    0.1802    1.4388 H   0  0  0  0  0  0  0  0  0  0  0  0
   -3.5862    0.6904   -1.4392 H   0  0  0  0  0  0  0  0  0  0  0  0
   -4.2009   -0.5911   -0.3854 H   0  0  0  0  0  0  0  0  0  0  0  0
   -4.3272    2.2889    0.1852 H   0  0  0  0  0  0  0  0  0  0  0  0
   -5.5593    1.3820   -0.3793 H   0  0  0  0  0  0  0  0  0  0  0  0
    2.2205    0.5994   -1.2272 H   0  0  0  0  0  0  0  0  0  0  0  0
    3.7274   -0.3191   -1.1630 H   0  0  0  0  0  0  0  0  0  0  0  0
    3.3136    2.3903   -0.1162 H   0  0  0  0  0  0  0  0  0  0  0  0
    4.7076    1.5601   -0.0075 H   0  0  0  0  0  0  0  0  0  0  0  0
  1  2  1  0
  2  3  1  0
  3  4  1  0
  4  5  1  0
  5  6  1  0
  6  7  1  0
  7  8  1  0
  1  9  1  0
  9 10  1  0
  1 11  1  0
  1 12  1  0
  2 13  1  0
  2 14  1  0
  3 15  1  0
  3 16  1  0
  4 17  1  0
  5 18  1  0
  5 19  1  0
  6 20  1  0
  6 21  1  0
  7 22  1  0
  7 23  1  0
  8 24  1  0
  8 25  1  0
  9 26  1  0
  9 27  1  0
 10 28  1  0
 10 29  1  0
M  END
$$$$
